:orphan:

.. toctree::
   :hidden:

   postprocessing/OpenFAST_SectionalLoading.ipynb
   postprocessing/AVGPlanes.ipynb
   postprocessing/InstantaneousAvgPlanes.ipynb
   ../../atmospheric_boundary_layer/convective_abl_nrel5mw/README.md
   performance/README.md
   postprocessing/README.md
   setup/SetupALM_OFv402_RIGID.ipynb
   README.md
   postprocessing/OpenFAST_v40_Results.ipynb
   setup/README.md
   results/README.md

