{
 "cells": [
  {
   "cell_type": "markdown",
   "id": "2513e9c4-0734-4774-943a-64120fadfd12",
   "metadata": {
    "tags": []
   },
   "source": [
    "# Postprocess OpenFAST results"
   ]
  },
  {
   "cell_type": "code",
   "execution_count": 1,
   "id": "f084230d-901b-4148-ad4a-2101d31f4b63",
   "metadata": {},
   "outputs": [
    {
     "name": "stderr",
     "output_type": "stream",
     "text": [
      "/ascldap/users/lcheung/.local/lib/python3.9/site-packages/pandas/core/computation/expressions.py:21: UserWarning: Pandas requires version '2.8.4' or newer of 'numexpr' (version '2.8.1' currently installed).\n",
      "  from pandas.core.computation.check import NUMEXPR_INSTALLED\n",
      "/ascldap/users/lcheung/.local/lib/python3.9/site-packages/pandas/core/arrays/masked.py:60: UserWarning: Pandas requires version '1.3.6' or newer of 'bottleneck' (version '1.3.4' currently installed).\n",
      "  from pandas.core import (\n"
     ]
    }
   ],
   "source": [
    "# Add any possible locations of amr-wind-frontend here\n",
    "amrwindfedirs = ['/projects/wind_uq/lcheung/amrwind-frontend/',\n",
    "                 '/ccs/proj/cfd162/lcheung/amrwind-frontend/']\n",
    "import sys, os, shutil, io\n",
    "for x in amrwindfedirs: sys.path.insert(1, x)\n",
    "\n",
    "import postproamrwindsample_xarray as ppsample\n",
    "import postproengine as ppeng\n",
    "import numpy as np\n",
    "import pandas as pd\n",
    "\n",
    "import matplotlib.pyplot as plt\n",
    "%matplotlib inline"
   ]
  },
  {
   "cell_type": "code",
   "execution_count": 2,
   "id": "da69b0fd-2212-4455-8b67-c52a833a76d2",
   "metadata": {},
   "outputs": [
    {
     "name": "stdout",
     "output_type": "stream",
     "text": [
      "# Loaded ruamel.yaml\n"
     ]
    }
   ],
   "source": [
    "# Load ruamel or pyyaml as needed\n",
    "try:\n",
    "    import ruamel.yaml as yaml\n",
    "    print(\"# Loaded ruamel.yaml\")\n",
    "    useruamel=True\n",
    "    loaderkwargs = {'Loader':yaml.RoundTripLoader}\n",
    "    dumperkwargs = {'Dumper':yaml.RoundTripDumper, 'indent':4, 'default_flow_style':False} \n",
    "except:\n",
    "    import yaml as yaml\n",
    "    print(\"# Loaded yaml\")\n",
    "    useruamel=False\n",
    "    loaderkwargs = {}\n",
    "    dumperkwargs = {'default_flow_style':False }\n",
    "    \n",
    "if useruamel: Loader=yaml.load\n",
    "else:         Loader=yaml.safe_load"
   ]
  },
  {
   "cell_type": "code",
   "execution_count": 3,
   "id": "a23eef3a-61f1-484b-ac20-c5b5a7c037b7",
   "metadata": {},
   "outputs": [],
   "source": [
    "def stringReplaceDict(s, dreplace):\n",
    "    outstr = str(s)\n",
    "    for k, g in dreplace.items():\n",
    "        outstr=outstr.replace(k, g)\n",
    "    return outstr"
   ]
  },
  {
   "cell_type": "code",
   "execution_count": 4,
   "id": "3014b690-fe21-4b49-9009-8fab82d38543",
   "metadata": {},
   "outputs": [],
   "source": [
    "#rundir='/gpfs/lcheung/HFM/exawind-benchmarks/NREL5MW_ALM_BD_OFv400'\n",
    "#RESULTSDIR='../results/OpenFAST_v40_out'\n",
    "\n",
    "replacedict={'RUNDIR':'/pscratch/lcheung/HFM/exawind-benchmarks/NREL5MW_ALM_BD_OFv402_ROSCO.redo',\n",
    "             'RESULTSDIR':'../results/OpenFAST_v402_out',\n",
    "             'RESULTSOLDDIR':'../results/OpenFAST_out'\n",
    "            }"
   ]
  },
  {
   "cell_type": "code",
   "execution_count": 5,
   "id": "158f48da-4695-48a2-968d-95b2b8d8dd0e",
   "metadata": {},
   "outputs": [],
   "source": [
    "yamlstring=\"\"\"\n",
    "globalattributes:\n",
    "  verbose: False\n",
    "  udfmodules: []\n",
    "  executeorder:\n",
    "  - openfast\n",
    "  - plotcsv\n",
    "  \n",
    "trange: &trange [300, 900]   # Note: add 15,000 sec to get AMR-Wind time\n",
    "\n",
    "openfast:\n",
    "# For FSI case\n",
    "- name: NREL5MW\n",
    "  filename: RUNDIR/T0_NREL5MW_v402_ROSCO/openfast-cpp/5MW_Land_DLL_WTurb_cpp/5MW_Land_DLL_WTurb_cpp.out\n",
    "  #filename: /nscratch/gyalla/HFM/exawind-benchmarks/amr-wind/NREL5MW_ALM_BD/runs/T0_NREL5MW_v402/openfast-cpp/5MW_Land_DLL_WTurb_cpp/5MW_Land_DLL_WTurb_cpp.out\n",
    "  vars:\n",
    "  - Time\n",
    "  - GenPwr\n",
    "  - RotThrust\n",
    "  - RotTorq\n",
    "  - RotSpeed\n",
    "  - BldPitch1\n",
    "  output_dir: RESULTSDIR\n",
    "  csv:  # Store information to CSV files\n",
    "    individual_files: False\n",
    "  operate:\n",
    "    operations: \n",
    "    - mean\n",
    "    trange: *trange\n",
    "\n",
    "plotcsv:\n",
    "  - name: Power\n",
    "    xlabel: 'Time [s]'\n",
    "    ylabel: 'Power [kW]'\n",
    "    title: 'Turbine power'\n",
    "    figsize: [10,4]\n",
    "    legendopts: {'loc':'upper right'}\n",
    "    savefile: ../results/images/OpenFAST_T0_GenPwr.png\n",
    "    csvfiles:\n",
    "    - {'file':'RESULTSDIR/NREL5MW.csv', 'xcol':'Time', 'ycol':'GenPwr', 'lineopts':{'color':'b', 'lw':1, 'linestyle':'-', 'label':'NREL5MW ALM v4.0.2'}}    \n",
    "    #- {'file':'RESULTSOLDDIR/NREL5MW.csv', 'xcol':'Time', 'ycol':'GenPwr', 'lineopts':{'color':'r', 'lw':1, 'linestyle':'--', 'label':'NREL5MW ALM v3.5.5'}}    \n",
    "    \n",
    "  - name: Thrust\n",
    "    xlabel: 'Time [s]'\n",
    "    ylabel: 'RotThrust [kN]'\n",
    "    title: 'Turbine thrust'\n",
    "    figsize: [10,4]\n",
    "    legendopts: {'loc':'upper right'}\n",
    "    savefile: ../results/images/OpenFAST_T0_RotThrust.png\n",
    "    csvfiles:\n",
    "    - {'file':'RESULTSDIR/NREL5MW.csv', 'xcol':'Time', 'ycol':'RotThrust', 'lineopts':{'color':'b', 'lw':1, 'linestyle':'-', 'label':'NREL5MW ALM v4.0.2'}}    \n",
    "    #- {'file':'RESULTSOLDDIR/NREL5MW.csv', 'xcol':'Time', 'ycol':'RotThrust', 'lineopts':{'color':'r', 'lw':1, 'linestyle':'--', 'label':'NREL5MW ALM v3.5.5'}}    \n",
    "\n",
    "  - name: RPM\n",
    "    xlabel: 'Time [s]'\n",
    "    ylabel: 'RPM [rpm]'\n",
    "    title: 'Rotor speed'\n",
    "    figsize: [10,4]\n",
    "    legendopts: {'loc':'upper right'}\n",
    "    savefile: ../results/images/OpenFAST_T0_RotSpeed.png\n",
    "    csvfiles:\n",
    "    - {'file':'RESULTSDIR/NREL5MW.csv', 'xcol':'Time', 'ycol':'RotSpeed', 'lineopts':{'color':'b', 'lw':1, 'linestyle':'-', 'label':'NREL5MW ALM v4.0.2'}}    \n",
    "    #- {'file':'RESULTSOLDDIR/NREL5MW.csv', 'xcol':'Time', 'ycol':'RotSpeed', 'lineopts':{'color':'r', 'lw':1, 'linestyle':'--', 'label':'NREL5MW ALM v3.5.5'}}    \n",
    "\n",
    "  - name: Pitch\n",
    "    xlabel: 'Time [s]'\n",
    "    ylabel: 'Pitch [deg]'\n",
    "    title: 'Blade pitch'\n",
    "    figsize: [10,4]\n",
    "    legendopts: {'loc':'upper right'}\n",
    "    savefile: ../results/images/OpenFAST_T0_BldPitch1.png\n",
    "    csvfiles:\n",
    "    - {'file':'RESULTSDIR/NREL5MW.csv', 'xcol':'Time', 'ycol':'BldPitch1', 'lineopts':{'color':'b', 'lw':1, 'linestyle':'-', 'label':'NREL5MW ALM v4.0.2'}}    \n",
    "    #- {'file':'RESULTSOLDDIR/NREL5MW.csv', 'xcol':'Time', 'ycol':'BldPitch1', 'lineopts':{'color':'r', 'lw':1, 'linestyle':'--', 'label':'NREL5MW ALM v3.5.5'}}    \n",
    "\n",
    "  - name: RotTorque\n",
    "    xlabel: 'Time [s]'\n",
    "    ylabel: 'Torque [kN-m]'\n",
    "    title: 'Rotor Torque'\n",
    "    figsize: [10,4]\n",
    "    legendopts: {'loc':'upper right'}\n",
    "    savefile: ../results/images/OpenFAST_T0_RotTorq.png\n",
    "    csvfiles:\n",
    "    - {'file':'RESULTSDIR/NREL5MW.csv', 'xcol':'Time', 'ycol':'RotTorq', 'lineopts':{'color':'b', 'lw':1, 'linestyle':'-', 'label':'NREL5MW ALM v4.0.2'}}    \n",
    "    #- {'file':'RESULTSOLDDIR/NREL5MW.csv', 'xcol':'Time', 'ycol':'RotTorq', 'lineopts':{'color':'r', 'lw':1, 'linestyle':'--', 'label':'NREL5MW ALM v3.5.5'}}        \n",
    "\n",
    "\"\"\"\n",
    "f = io.StringIO(stringReplaceDict(yamlstring, replacedict))\n",
    "yamldict = Loader(f, **loaderkwargs)"
   ]
  },
  {
   "cell_type": "code",
   "execution_count": 6,
   "id": "bce09705-2389-43b5-8699-4d8b1a2d4875",
   "metadata": {},
   "outputs": [
    {
     "name": "stdout",
     "output_type": "stream",
     "text": [
      "Initialized openfast\n",
      "Running openfast\n",
      "NREL5MW /pscratch/lcheung/HFM/exawind-benchmarks/NREL5MW_ALM_BD_OFv402_ROSCO.redo/T0_NREL5MW_v402_ROSCO/openfast-cpp/5MW_Land_DLL_WTurb_cpp/5MW_Land_DLL_WTurb_cpp.out\n",
      "Initialized csv inside NREL5MW\n",
      "Executing csv\n",
      "Initialized operate inside NREL5MW\n",
      "Executing operate\n",
      "Initialized plotcsv\n",
      "Running plotcsv\n",
      "Saving ../results/images/OpenFAST_T0_GenPwr.png\n",
      "Saving ../results/images/OpenFAST_T0_RotThrust.png\n",
      "Saving ../results/images/OpenFAST_T0_RotSpeed.png\n",
      "Saving ../results/images/OpenFAST_T0_BldPitch1.png\n",
      "Saving ../results/images/OpenFAST_T0_RotTorq.png\n"
     ]
    },
    {
     "data": {
      "image/png": "iVBORw0KGgoAAAANSUhEUgAABD0AAAHoCAYAAABKP5RDAAAAOXRFWHRTb2Z0d2FyZQBNYXRwbG90bGliIHZlcnNpb24zLjUuMSwgaHR0cHM6Ly9tYXRwbG90bGliLm9yZy/YYfK9AAAACXBIWXMAABM5AAATOQGPwlYBAAC3JklEQVR4nOzddbhV1dYG8HfAAQ7dJUojooQSorSCgYqAAhaCeb02ttdEwc/m2n0VA+xAMQFRQgEFFRVFkO44dJ9z5vfH2NO19j67O97f8+xnrr32irlP7jXWmGOKMQZERERERERERNmmVKo7QERERERERESUCAx6EBEREREREVFWYtCDiIiIiIiIiLISgx5ERERERERElJUY9CAiIiIiIiKirMSgBxERERERERFlJQY9iIiIiIiIiCgrMehBRERERERERFmJQQ8iIiIiIiIiykoMehARERERERFRVmLQg4iIiIiIiIiyEoMeREREOU5ETISPZQnow1jPsXtFsE8vzz5j490fIiIiyg55qe4AERERpdyrftZ1A9AMwC8AfvZ5bVOiO0REREQUDwx6EBER5ThjzAW+6zzZE80AfGSMGZnkLoVrDoBWALaluiNERESUnhj0ICIiooxkjNkN4M9U94OIiIjSF2t6EBERUdhEZKSnjsYFAV5fJiLGZ90/tTdEpJ6IvCQiq0SkUERG+DlGXxGZISI7RWSLiHwgIof52c5vTQ93H0WkjYh87DnOLhH5VkS6BHl/3UTkQxHZICL7PO/nCRGpHeaXyB7HePYtKyL3iMjfIrJXRJaIyL0ikh9gv5oi8rCILPJsXyAiX4jIiX62XSYie3yPJSJPec6/1M8+Ez2vHeGzvraIPCIiCz3n3SIin4tIDz/HiOj7SURElEoMehAREVGy1AbwA4BTAXwP4HMAu322GQzgUwBlAXwCYA2AgQBmiUi7CM/XEcAsAC0BTAGwCEAPAFNEpLXvxiJyDYBpAPoBWAzgYwB7AFwNYLaI1I/w/ALgPQA3AVjgeV81ANwJYKKIlPY5fwPokJ0boe//IwA/AegD4EsRuc7n+N8CyAdwjM/6Xp62sYg0dh2/NLRWyyZPf+z6wzznuQFAaQCfAZgP4HgAU0Xk3ADvL5zvJxERUUox6EFERETJcgr0IrmJMWawMaafMeYFn22uAHCZMeZoY8w5AFoDeBBAVQAvR3i+KwHcY4xpaYwZZIw5EsBj0EDBze4NReQYAP8FsAJAe2NMF2PMYACHA7gLQBMAT0R4/oYAjgLQ2vNezwTQAsBvAHp7+uf2HICmAF4H0NwYc7Yxpjc0iLEbwMMi0ta1/TeetpfrfdTy9Pl339c8fakK4FtjjPFsXxrAuwAaALgWQAtjzBnGmJ7QYMoWAC+ISB0/7y+c7ycREVFKMehBREREybIPwNXGmL1BtvnOGPOifeK5OL8TwEoA7UXk2AjON8MY85DPutGe1nfYxq3Qz0X/MsbM9zn/aGgmxBmeoEIk7jXGLHEdbyM08wNwBT1EpCmA0wBsB3CNMeaAa58Z0IBIaWhQyPrW0/ZyresJzTC5H8B+P68BTrAE0KyW1gDeNMY8YYMhnvP+BGAUgIoAhvp5b+F8P4mIiFKKQQ8iIiJKlnnGmNUhtnnLd4UnAPC+52m3CM73lZ9jbQawGcA/Q1VEpBQ082IHdBiM7z4GwEzo56YOEZwf8P9+voBmUBzqqhVi39dnxpitfo7zuqft7jrOEmhmyjGuuh69ABgAX0CzMHq5jmGXv3WtO8HTfhSg/zM8bSc/r4Xz/SQiIkopBj2IiIgoWVaEsc3yAOuXedqDIjjfqgDrd0JrZlg1AVQCUBlAoadIp9cDwFWebSPJ9NhijNkR4DX7Pg/yaZcF2N6u933/3wIoB6euRy8Av3qCO98AaCQijT2BHVvP4zfX/o097dsB3vePntf9ve9wvp9EREQpxSlriYiIKJ6C3VCJZRiERLGPCb0JAB02Amimxwchtg0UlIlUoPcTqM8mwOvfAjgfQC8R+RXAEQCe9Lz2DYDboYGQ+QCqAfjAPYQFznv/HMCGIP31NzUwh7UQEVHaY9CDiIiIIrHf01byfcFTFLNejMdvFGB9Q0+7Jsbj+7MJWp/igDHmgjget7qIVA6Q7WHfz1pPa99XkwDHauyzvfWNp+0FDWyIa913cOp61PCscw9tAZxsmOeMMR8HODcREVHG4vAWIiIiioS96D7Uz2vHAygT4/HP8l0hInkAzvQ8nRnj8UswxhRCAwU1RMS3wGms/L2fkwBUB7DIGGOzK2ztjFNFpJqf49hCotPdK40xf0MDF8cAOBmaCfKt57XdcOp69PLs8o3PcSd72gGh3woREVHmYdCDiIiIImEzBYaKSGO70jP7yJN+94hMVxG5yHVcAXAPNDPiF2PMd3E4hz//B6AYwKsiUqJYqogcJCK+U8yG4y6fr1MtAHZGmWfsek9R0k+hdUUeF5Eyrn2OBXA5gCL3Pi62rsf5AOYbYwpcr30DzZ45AUABgF999n0POnTlAhG5xX1ez7nLisgZItIm3DdMRESUThj0ICIiorB5Ls5fg2Yq/CwiH4vIFOjF9HzEXvPiWQAvichsERnvOe5t0HobF8Z47ICMMdMAXAvgEADTReQXEXlPRCZ6amWsAHBfhIddAeAXAL97vk7vA1gEoC2AqQCe8tn+MgBLAQwDsEhE3hSRydDsjooAbnZPp+vyjafNR8lMDvdr03zqedgsl4HQKYEfALBcRL4QkXdE5HsA66Ez5zSL4H0TERGlDQY9iIiIKFKXQi+QtwM4CZpJ8H8AzonDsd8BcDo0q6E/gIMBTABwjDHmpzgcPyBjzFMAOgMYBw3qnA7gWGgGyHOe/kR0SACDADwGoA2A0wBsgwZPTvUEHNznXw2dGvZRAIUAzoBOkTsFwEnGmDEBzvNNgGXAqevh7zV73j8BHAlgJLSYaTcApwKoDWAaNNg02d++RERE6U58Av5EREREFCPPdK/LjTGNU90XIiKiXMZMDyIiIiIiIiLKSgx6EBEREREREVFWYtCDiIiIiIiIiLISa3oQERERERERUVZipgcRERERERERZSUGPYiIiIiIiIgoKzHoQURERERERERZiUEPIiIiIiIiIspKDHoQERERERERUVbKS3UHKDgRqQngJADLAOxNbW+IiIiIiIiIUiYfQGMAXxpjNoezA4Me6e8kAONS3QkiIiIiIiKiNHEegPHhbMigR/pbBgBvvPEGWrVqleKuEBEREREREaXGH3/8gaFDhwKe6+RwMOiR/vYCQKtWrdC+fftU94WIiIiIiIgo1cIu/cBCpkRERERERESUlRj0ICIiIiIiIqKsxKAHEREREREREWUlBj2IiIiIiIiIKCsx6EFEREREREREWYmztxARERERUdoqKirC+vXrsXfvXhQXF6e6O0QUZ6VKlUJeXh6qVKmCqlWrQkTie/y4Hi2BROQbETFBHicH2G+YiMwRkZ0iUiAin4lIlxDn6uLZrsCz3xwRGR5in4NF5GURWSMie0XkLxG5V0TyY3nfRERERES5qqioCCtWrMC2bdtw4MCBVHeHiBKgsLAQu3btwtq1a7Fs2TIUFhbG9fiZmOnxPoCdftav9l0hImMAXAdgD4CvAOQDOAHAiSIy2BjzoZ99BgJ4FxoQmgZgE4DeAMaKSDtjzPV+9mkG4HsAtQH8BmA6gI4A7gTQR0SOM8bsi+K9EhERERHlLJvhUa1aNdSrVy/ud4CJKD0cOHAAGzZswPbt21FQUIA6derE7diZGPS40RizLNRGInI8NOCxGcCxxphFnvXHAvgGwCsi8o0xZotrn+oAXgFQGsCZxpgPPOvrApgB4DoR+cQYM9XndC9DAx5PGGOu9eyTB+AdAAMB3Abg7qjfMRERERFRDtq7dy9KlSrFgAdRlitTpgzq16+PnTt3YufOnXENemTM8JYo3OBpR9uABwAYY74H8ByAqgAu8tnnEs/6CTbg4dlnPYCbPU+9Mj1EpBOAHgA2uLaBMaYQwOUADgC4WkTKxOE9ERERERHljOLiYpQuXZoBD6IcUKpUKZQuXTrutXuyMujhqaPR2/P0PT+b2HX9fNafFmSfTwHshQ5XcdfpsPt84juExRMsmQ6gOoCu4fWeiIiIiIiIiOIhE4MeF4vIMyLylIhcIyIN/WxzGIByADYaY1b5eX2ep23rs76tz+v/MMbsh9bryAfQ0vVSu0D7+KxvF+B1IiIiIiIiIkqATAx63AEdNnIlgMcBLBaRO322sYEQfwEPGGN2AdgKoLqIVAYAEakCoFqw/Vzr3YGWoOcKsA8RERERERERJVgmBT2mATgfQDMAFaDZFrcDKARwr4hc69q2kqfdHeR4u3y2reR6LdB+vvuEcy5/+/glIvVFpL37Ac1ayQjz5gFHHQU8/3yqe0JERERERESUQUEPY8xdxpg3jDFLjDF7jDF/GWP+D8AAzyb3iEh5z7KtdGSCHNK3GlI41ZH8bRPqXJFUXboMwFyfx7gI9k+pXbuAn38G1q5NdU+IiIiIiDLDN998AxGBiODzzz8v8frYsWMhIpg8ebLffUQEpUqVQvXq1XHCCSdg0qRJJY6xbNkyr+19H0ceeWSJbe+4446g/bb98vd44403vLYdOXLkP6/NmTPH7/EGDBjwzzaFhYUAgBtuuAEigvnz55fY/rjjjoOI4Jlnninx2p133gkRwaxZs4K+B7dWrVpBRPDggw8G3EZEMHTo0KDHcX9d3nnnHb/bjBgx4p9tFi9eHHYfIzVs2DCICLp16xbRfi+++CJat26N/Px8HHLIIbjllluwZ8+ekPsVFxfjtddew5lnnokmTZqgQoUKaNGiBS677DKsWbMm2rcRs0ycstaLMeYrEfkRQEcAxwCYCmCH5+WKQXat4Gl3etodPq9tD2Mf936BzuVvn0CeB/Cxz7rDkCGBD1tU2wQLNRERERERkV933nkn+vbtG/b2F198MXr16oWioiIsXboUzz//PE4++WR8+eWX6NOnT4nt+/fvj0GDBpVYX6NGjaj7fOutt+KII47wWte1q/85HPLz8/H666/j6KOP9lq/efNmfPbZZ8jPz8fevXv/Wd+jRw+MGTMG06ZNQ9u2TjnG/fv3Y/bs2cjLy8O0adNwxRVXeB1v2rRpqFChAjp06BDWe5g9ezb+/PNPNG3aFK+++ipuueWWsPYLxr7XIUOGeK0vLCzEm2++WeK9xtu0adMwfvx4lC9fPvTGLg899BBuueUW9O/fH9deey0WLFiARx99FL///jsmTpwYdN/du3dj+PDhaN++PYYPH45DDjkEf/75J5599ll8+OGH+PHHH9GwYfKrPmR80MNjETToUd/zfIWnPdjfxiJSEVq/Y6sxZgcAGGO2i8g26JS1BwNY4GdXe7wVrnUrABwV6FwB9vHLGLMWgFeeRCZNz8WgBxERERFRdNq3b4+5c+fiww8/xMCBA8Pa55hjjvHKPBg8eDBat26N//73v36DHq1btw6ZqRCp3r17+z2XP/369cNbb72FMWPGoEyZMv+sf/PNN1GqVCmceOKJ+Phj5x5w9+7dISKYNm0arrrqqn/W//DDD9izZw+GDx+Or776yusc+/btw5w5c9CtWzevcwTz6quvon79+njsscdw+umn44cffkCnTp3C2jfYe/3www+xceNG1K5d+5/1X3zxBTZs2IAhQ4YEzASJVWFhIa644gpccskl+OKLL8Leb+PGjRg5ciROP/10fPTRR/+sb9iwIa6//np8+umnOPXUUwPuX7ZsWUybNg3du3f3Wt+3b1/07t0bjzzyCJ544omI30+sMmZ4SwjVPa3NplgIYB+A2iLiLxjR3tP65kn94vP6P0SkDIDWnuMuDGefEOfKOgx6EBERERFF5+KLL0bDhg1x9913w0T5gfqII45ArVq1Ejpkwp8dO3bgwIEDIbcbNmwYNm3aVOJC/LXXXsNpp52G6tWre62vUaMGWrdujenTp3utnzZtGmrXro2LL74Ya9eu9Xq/c+bMwd69e9GjR4+w+r5v3z68/fbbOOecc9C3b1/UqVMHr776alj7BjNkyBCULl0ab731ltf61157DR06dECrVq1CHqOwsBB16tTBySef7Pf1008/HdWrV8f+/fu91v/3v//F2rVrcd9990XU548++gh79uzBiBEjvNZfdtllyM/Px/jx44PuX7Zs2RIBDwA4/vjjUaNGDfz+++8R9SdeMj7oISK1Adiv7DwAMMbsAfC1Z13J/C1nnW9+zqdB9jkNOl3tFGOMOw/J7tNPRMr59K2up2/bAMwI/k4yH4MeRERERETRKVu2LO688078+uuvePvtt6M6xtatW7FlyxbUrFnT7+t79uzBpk2bSjx27w42/0NwZ5xxBqpUqYL8/Hx06dIFU6ZMCbjtYYcdho4dO+L111//Z93ChQvxww8/4Pzzz/e7T8+ePbFu3Tr89ddf/6yz2QRHH300ypUrh2nTpnm9ZvcLxyeffIKCggIMHToUeXl5OOuss/Dmm2+WCCREqlq1aujXr5/Xe922bRs++eSTgO/Vl+3P5MmTsX79eq/XCgoK8OWXX2Lw4MEoW7bsP+tXrVqFe++9F6NHjw74cxDIjz/+CEAziNwqVKiAtm3bYu7cuREdz9qxYwd27tyJOnXqRLV/rDIi6CEix4jIceIz1kNEGgP4EFpP42NjjHva2DGe9g4RaeHa51howdDtAP7nc6qXPOv7i8gZrn3qAHjI57gAAGPMHAAzAdQB8KBrnzwAzwAoA+BJY0zo0GeGY9CDiIiIiJKhZ0+gadP0eYR5fR3SBRdcgObNm2PkyJEoKioKuf3OnTuxadMmbNiwAbNnz8aQIUNQVFSEc845x+/2Y8aMQe3atUs87rrrroj7WqFCBZx33nl4/PHHMWHCBDzwwANYunRpiSEqvoYNG4aPP/4YW7duBaBDS2rWrIlTTjnF7/Y2Y8MGM4qKivDdd9+he/fuKFeuHDp16lQi6FGuXDl07tw5rPfx6quv4vDDD8dRRx0FABg6dCgKCgpC1q8Ix7Bhw/DDDz/gzz//BAC8/fbbKCwsDPj98ee8885DUVFRiUDYu+++i/379+O8887zWj9ixIh/iodGas2aNahRo4bfOiANGjTA6tWrIz4mADz88MPYv38/zj333Kj2j1VGBD2gxTy/BrBaRL4RkbdEZAaAPwB0BfA7gEvdOxhjJgN4HEBNAD+LyEci8hl06tsyAC4yxhT47FMA4CIAxQDeE5GpIvIudDhLcwBPGGP8hS4vBLAZwLUiMl9E3vLscwaA2QAiyyvKUDbo8X//l9p+EBERERFlory8PNx9991YuHBhiRlQ/LnuuutQu3Zt1K1bF8cccwxmzpyJUaNGedW/cDvvvPMwadKkEo9oLpCHDBmCN954AxdeeCFOP/103HTTTfj5559RrVo1XHvttQGH6JxzzjkoLi7Gu+++C2MMxo0bh7PPPjtg/Q3foMfPP/+M7du3/zOMonv37l4Bke+//x6dO3dGuXLl/B7PbcOGDfjiiy+86pwcffTROPTQQ+MyxKVv376oXbv2P9ker732Gk466aSIMh6OOeYYNGvWrMTQkvHjx+OQQw7xGsbz5Zdf4oMPPsBTTz2FUqUiv9TfvXt3wK9bfn5+WDO4+Pr8889x33334YwzzkC/fv0i3j8eMqWQ6WwAzwLoDOBwaKBjF4CfAbwL4FnPkBYvxpgRIvIzgKsAnADgAIApAEYbY/wONzHGvC8iPQDcAZ0Npiw0uPK0MeaVAPssEpGjANwL4GQAAwGsBDAawP/5DIchIiIiIqIYfPttqnuQOOeeey7uv/9+3HvvvSHvjF9//fXo27cv9u7di+nTp+PRRx/Fnj17Ak6G0Lhx47CLjkajbt26uOCCCzBmzBgsWrQIhx56aIltatWqhb59++L1119Hs2bNsGLFiqDDPerWrYuWLVv+E9iYNm0aKlWq9M80u926dcP999+PVatWYe3atdixY0fY9TzGjRuHwsJCdO7c2asuSJ8+ffDiiy+WKEIaqby8PJxzzjkYN24cLrzwQsycObNEjY9wnHvuuRg1ahT+/vtvNGvWDCtXrsT06dNx0003/fO93rdvH6666ioMHToUXbp0iaq/FSpUwL59+/y+tnfv3ohngpk1axaGDBmCDh06xCWIFK2MCHoYY/4AcEXIDf3vOxbA2Aj3mQkg/LmidJ+V0IyPnJVBE80QEREREaWlUqVKYeTIkRgyZAhefvnloBkLrVq1+ieIcdppp6FatWq47bbbcOyxx+K0005LVpe9NGrUCACwadMmv0EPADj//PMxZMgQjB49GoceemjIoSg9e/bECy+8gBUrVmDatGno0qULSpcuDUCnxy1VqhSmTZuGtWvX/rN9OOyFeO/evf2+Pn78eFx77bVhHSuQ888/H0888QQuu+wyVKlSBaeffnrExzjvvPMwatQojB8/HnfeeSfefPNNGGO8MlSeeuoprFixAq+88opXAKewsBB79+7F4sWLUa1aNdSqVSvgeQ466CAUFBRgz549JQIcq1evRoMGDcLu888//4xTTjkFjRo1whdffIFKlSpF8I7jK1OGt1AGYNCDiIiIiCh2gwYNQrt27TB69OiAd979uf7669GwYUPcdNNNKC4uTmAPA7MX3HXr1g24Tb9+/VCtWjVMnTo1rKKeNnPj22+/xYwZM7xmCKlatSratGmDadOmYdq0acjLy8Oxxx4b8pi//PILfvnlF1x99dV49913SzzatWsXl+yEjh074vDDD8fXX3+NwYMHR5wtAQAtW7ZEx44dMW7cOACaodK6dWu0adPmn21WrlyJ/fv3o3v37mjRosU/j9WrV2Pu3Llo0aIFRo4cGfQ8HTp0AKAZGm579uzB/Pnz/3k9lAULFuCEE05AjRo1MGnSJNSoUSOCdxt/GZHpQZmBQQ8iIiIiotiJCO699170798fL7zwQtj7lStXDtdffz1GjBiBd955B2effXbC+lhQUFDiYnbx4sV45ZVX0LJlSzRr1ixoP5999ln88ccfuPDC0MnyNnPj+eefx6ZNm0pMi9qtWzdMmTIFGzduRMeOHVGxYsWQx3z11VchIrj11ltx0EEHlXh9yZIluOWWW/Drr796BReiMWbMGHz//fcYPHhw1Mc477zzcN111+G1117D/Pnz8cADD3i9fuGFF6Jbt24l9rviiitQs2ZNjBo1Cs2bN/9nvZ25p2HDhqhQoQIAYMCAAbj22mvx+OOP47jjjvtn2+eeew579+4t8fP0559/okKFCmjYsOE/6xYvXow+ffogPz8fkydPRv369aN+z/HCoAfFDYMeRERERETxcfrpp+Poo4/GnDlzItrv0ksvxahRo3DffffhrLPO8qrv8dtvv/ktkFq6dOkSM4rMmDEDo0ePLrFty5YtMXjwYLRt2xa9evVC69atUbNmTfz555948cUXceDAATz33HMh+3nWWWeF/Z4OPvhgNGnSBDNnzkTZsmVx9NFHe73evXt3PP300wCAiy++OOTxCgsLMX78eBx99NF+Ax4AMHDgQNxyyy149dVX8cgjj/yz/rfffvP7dalXrx4uueQSv8c66aSTcNJJJ4XsVzBnn302brzxRlx11VUQkRLfr3bt2qFdu3Yl9rvxxhtRs2ZNDBo0yGv9U089hXvuuQdTp05Fr169AAB16tTB3Xffjf/85z8YOHAgTj31VCxYsABPPvkkTj755BKFSFu1aoWePXvim2++AaBT0/bp0wdr167F7bffjhkzZmDGDKeUZqVKlTBgwICYvg7RYNCD4oZBDyIiIiKi+Bk1alTEF8sVKlTAVVddhXvuuQcfffQRBg4c+M9rEyZMwIQJE0rsU65cuRIX0d9++y2+9VMxtn///hg8eDCGDBmCqVOn4tNPP8XOnTtRq1YtnHLKKbjtttvQtm3biPocjp49e2Lp0qXo0KFDiSEi7syPcIqYfvHFF1i/fj1GjBgRcJsWLVrgiCOOwLhx4/DAAw8gL08vne2wGF/t2rULGPSIh3r16uH444/HpEmT0KNHD6/sini69dZbUb16dTz++OP47LPPULt2bYwYMQL33HNPyH03b96M5cuXAwDuu6/kBKaNGjVKSdBDAk0lROlBRNoDmDt37ly0b98+1d0J6qefANtF/lgRERERUaxsfQh3Wj4RZa9Qv/Pz5s2ztUU6GGPmhXNMFjKluGGmBxEREREREaUTBj0obhj0ICIiIiIionTCoAcRERERERERZSUGPShumOlBRERERERE6YRBD4obBj2IiIiIiIgonTDoQXHjDno88EDq+kFEREREREQEMOhBceQOejz9dOr6QURERETZoVSpUigqKoIxJtVdIaIEKy4uRlFREUqVim+YgkEPiht30KOwMHX9ICIiIqLskJ+fj+LiYqxbt46BD6IsduDAAaxduxbFxcWoVKlSXI+dF9ejUU5zBz2KilLXDyIiIiLKDnXr1sW+ffuwdetWbN++HaVLl051l4gozmyGB6CBzho1asT1+Ax6UNy4gx7FxanrBxERERFlh9KlS6Nhw4ZYv3499u7di2J+yCTKOnl5ecjPz0eVKlVQtWpVSJxnyGDQgxKC2YdEREREFA+lS5fGQQcdlOpuEFGGYk0Piht3QI5BDyIiIiIiIko1Bj0obhj0ICIiIiIionTCoAfFDYMeRERERERElE4Y9KC4cQc9tm1LXT+IiIiIiIiIAAY9KI58i+y+8UZq+kFEREREREQEMOhBceQb9Dj/fA5zISIiIiIiotRh0IPixt90ykVFye8HEREREREREcCgB8WRv6DHb78lvx9EREREREREAIMeFEf+hrJ07pz8fhAREREREREBDHpQHPkLeuzfn/x+EBEREREREQEMelAcsWgpERERERERpRMGPShuGPQgIiIiIiKidMKgBxERERERERFlJQY9KG6Y6UFERERERETphEEPihsGPYiIiIiIiCidMOhBccOgBxEREREREaUTBj0oboqL/a/fty+5/SAiIiIiIiICGPSgOCoq8r9+z57k9oOIiIiIiIgIYNCD4qhpU//rA2WAEBERERERESUSgx4UNxUq+F8fKAOEiIiIiIiIKJEY9KCEKyxMdQ+IiIiIiIgoFzHoQQnH4S1ERERERESUCgx6UMJxeAsRERERERGlAoMelHDM9CAiIiIiIqJUYNCDEo6ZHkRERERERJQKDHpQwjHTg4iIiIiIiFKBQQ9KOGZ6EBERERERUSow6EEJx6AHERERERERpQKDHpRwHN5CREREREREqcCgByUcMz2IiIiIiIgoFRj0oIRjpgcRERERERGlAoMelHD79qW6B0RERERERJSLGPSghDvzzFT3gIiIiIiIiHJRRgY9RKSGiGwQESMifwbYZqTn9UCPB4Icv4uIfCYiBSKyU0TmiMjwEH06WEReFpE1IrJXRP4SkXtFJD/W95vp1q5NdQ+IiIiIiIgoF+WlugNRGgOgVpjbzgSw2M/6uf42FpGBAN6FBoSmAdgEoDeAsSLSzhhzvZ99mgH4HkBtAL8BmA6gI4A7AfQRkeOMMRzkQURERERERJREGRf0EJHeAIYDeAHAv8LY5SVjzNgwj10dwCsASgM40xjzgWd9XQAzAFwnIp8YY6b67PoyNODxhDHmWs8+eQDeATAQwG0A7g6nD0REREREREQUHxk1vEVEygN4DsACAI8k4BSXAKgKYIINeACAMWY9gJs9T70yPUSkE4AeADa4toExphDA5QAOALhaRMokoL9EREREREREFEBGBT2g2RLN4AQT4u00T/uen9c+BbAXOlzFXafD7vOJ7xAWT7BkOoDqALrGua9p6ZNPUt0DIqLAHn0UOPVUYMeOVPeEiIiIiJIhY4IeItIWwA0AXjHGTItg1+NF5DEReU5E7hCRDkG2betp5/m+YIzZD63XkQ+gpeuldoH28VnfLsDrWaVz51T3gIgosBtvBD77DJg8WZ/v3g3ceSewYEFq+0VEREREiZERQQ8RKQXgRQBb4RpCEqbzAVwL4DIAowD8KCLviUgln3NUAVDN83RVgGPZ9Q1d6xr6vBbOPlmrVrjlZYmIkqy42Fles0bbN94ARo8GBg5MTZ+IiIiIKLEypZDp1QCOBnChMWZzmPssBnAjgM8BLIcOMekB4CEAZ0KLlbo/5rqDILsDHHOXn23tciT7+CUi9QHU91l9WKj90olIqntAROTftm3Osp1K+48/tP3rr+T3h4iIiIgSL+2DHiJyCIDRAL4NdxYWADDGvOGzaheA8SIyFcCvAAaISBdjzHf2VOF0J8g6E8E+gVwGzvJCRJQQGzc6yzbTY7FnQvNy5ZLfHyIiIiJKvEwY3vIMgLLQ4qUxM8ashU5LCwAnuV5yl7WrEGB3u36nn/0qRrBPIM8D6ODzOC+M/dJKx46p7gERUUmbNjnLNtOjoEDbffuA/fuT3yciIiIiSqy0z/SAzo6yFcCz4j12ws6g0lBEvrHbGmPCCS4s8rT/DCUxxmwXkW3QKWsPhk6L6+tgT7vCtW4FgKNcr4Wzj1+egMxa9zrJwPEin38OTJkC3HsviwMSUfrYssVZtkEP97p164CGOVF9iYiIiCh3ZELQA9ACoz0DvFbe9Vq476e6p/UNkPwCrfvRHj5BDxEpA6A1gH0AFvrs09+zjz92/fww+5bxatUCzjpLLx66dAEaNUp1j4iIgF27nGU7vMU3EMKgBxEREVF2SfvhLcYY8fcA0MSzyULX+q2hjieaOmELmM71eflTTzvIz66nQbNLphhj9vrZp5+IeI0KF5G6ALoD2AZgRqi+ZZtOnbQ99NDU9oOICPAOemzaBBQVeQc9bCCEiIiIiLJH2gc9oiEitURkmJ8gRCUAzwLoDGAdgA99dn0JwHYA/UXkDNd+daCzvgDAGPcOxpg5AGYCqAPgQdc+edB6JGUAPGmMORCHt5ZRSpfWdtKk1PaDiAgAdnpy+0qVAowBNmzQWh7W2rX+9yMiIiKizJWVQQ/o9LCvAtggIrNE5B0R+QrAMugMKVsBDDLGeE0za4wpAHARgGIA74nIVBF5FzqcpTmAJ4wxU/yc70IAmwFcKyLzReQtzz5nAJgN4L4EvMe05y5H8vffqesHERHgZHo0aKDt0qXaHuypvLRhQ/L7RERERESJla1Bj83QrIufoIVETwfQFZrd8SiA1saYmf52NMa8D63r8SWAIwGcAuBvABcZY64NsM8iaDHTsQBqQ4fPGOhUu8f5DIfJSe67qUREqWCDHjbIsWSJts2aaese6kJERERE2SFTCpmWYIxZBsDv1CbGmB0Abo3h2DMB9I1wn5XQjA/yo1S2hteIKGPY4S026GEzPZo0Ab79lkEPIiIiomzES1FKClvfg4goVQJlejRtqi2DHkRERETZh0EPSori4lT3gIhyXaCgx8EHA3l5wNatKekWERERESUQgx6UFEVFqe4BEeW6QMNbqlfXBzM9iIiIiLIPgx6UFAx6EFGq+c7esnKltjVqMOhBRERElK0Y9KCkYNCDiFJt1y4gPx+oWdN7fZ06DHoQERERZSsGPSgpGPQgolTbtQuoVEkDHG426LFnD6fXJiIiIso2DHpQUhQWproHRJTrdu4EKlb0Dnrk5Tk1PQBmexARERFlGwY9KCmY6UFEqbZrlwY9ypYFKlTQdaVLAyIMehARERFlKwY9KKHuvlvbbdtS2w8iIju8BQB279a2e3dtGfQgIiIiyk4MelBC2SkhTzkltf0gotxWXOxkegBA//7adu6sbb162q5alfy+EREREVHi5KW6A5Tdli9PdQ+IiLRIKeAEPZ57DujXD7jgAn1+6KHaLlqU9K4RERERUQIx04MSqkyZVPeAiAjYsUPbypW1rVcPuPhirekBOEGPr79Oft+IiIiIKHEY9KCEKsWfMCJKA75BD1+HHKJtQUFy+kNEREREycFLUkooBj2IKB2ECnqULg00bw4sWQIYk7x+EREREVFi8ZKUEkok1T0gIgod9ACAo44Ctm8HVq9OTp+IiIiIKPEY9KCEYtCDiNKBDXpUqRJ4m/r1tR0/PrZzMVOEiIiIKH0w6EEJxaAHEaWD7du1DZbpce652r78cvTnuftuID8f+P776I9BRERERPHDoAclFIMeRJQOwhne0rmztgsXAjt3Rneee+8F9u8HPv44uv2JiIiIKL4Y9KCEeuABbYNdaBARJcL69cANNwAbN4YX9ACAoUO1nTo18vPZcwDAqlWR709ERERE8cegByXUEUcAZcoA7dqluidElGvGjNHHv/4VftCjZ09tFy+O/HzufZYti3x/IiIiIoo/Bj0o4UqXBgoLU92L9HDgALBvX6p7QZQbfvlF26VLww96dO+u7eefR34+Bj2IiIiI0g+DHpRweXkMelht2gCNGvHrQZQMu3drW7p0eLO3AECzZtr++GPk51u0yFlevVprexARERFRajHoQQmXlwcUFaW6F6m3caMWSFy/HliyJNW9Icp+W7Zou2pV+JkeeXlAvXrA1q2RBy3WrNH2mGN02toVKyLbn4iIiIjij0EPSritW4GfftKhHbnMHehYuzZ1/SDKFVu3arthgz6A8Ioq9+2rQYuVKyM7nw2ydOigLYe4EBEREaUegx6UND/8kOoepNbSpc7yunWp6wdRrrBBDwD47TfN4ihXLvR+TZpo6/6dDUdBgbZHHaWtDXq8/TYwbVpkxyIiIiKi+MhLdQcod5TK8RCb+wKKmR5EiVVYCOzc6TzfuBGoXh0QCb2vDXpEmqlRUABUrAi0bKnPv/kGeO45YO5coHZtJ9uEsseqVfp9b9s21T0hIiKiQHL8MpSSqUyZVPcgeXbvBv74w3sdMz2Ikmf79pLrwhnaAgCNG2sbTaZH9erA4Yfr83HjNOABaNDFDn+h7HHssToluzvARkRElM4GDNCbQLbeWS5g0IOSJpw7rJlizx6gd2/giSdKvvbAA3q39/DDgZkznfXM9CBKHju0pVUrZ124QY9YMj1q1NBH9eolX//rr8iOR+lt/37N9ACACRNS2xciIqJwFBY6/7O++y61fUkmBj0oabJpBpfPPwe+/hq49lrv9WvWAP/5j/P8gw+c5alT9WIIADZtSnwfiXKZDXq0a+esCzfoUb8+ULZsZJkexcWayWF/x7t1c1579llt//47/ONR+nMXumXRWiIiygTuaxBmehAlQGFhqnsQP2+/7X/9L794P7dTVu7erUGf2rWB8uWBzZsT2z+iXOcv08MGJEIpVQpo1Aj4/vvwz7dtm874Ys9x553ann8+0Ly5LjPokdlmzwaOPBL44gt97g6K2emKiYiI0pm7yHsuDbdn0IMSzn74z5aghzHAO+84z91juRcv1nbcOKBCBedDsR3X37MnULMmgx5EibZtm7Y1amjWBgDUqhX+/naWF3ucUOzvtA16dOqk2R+vvQY0a6brpk4N//yUfsaN08D2DTfoc3d2R7RDFpctA+67L9aeERERhccd9Mil4fYMelDC2QKm2TK8xTcqun69s2yDHq1aaV0AG/QYO1bb9u0Z9CBKBvtPvVo1rb0AAJUqhb9/797aLlwY3vb2g0P9+s46W8fokEO0Xb48/PNT+rFBjgULvJ8D0X9wbNIEuOMOYMaMWHpGREQUHn+ZHlu36gxz2XKD2h8GPSjh8jwTIx84kNp+xOLii/UC5ssvgSVLvF9zB0FsRkezZvphtqBAPyC//LKuHzBAgx5bt2ZPEIgoHdl/6lWrAkOH6nKvXuHvb2dgCfdi1F/Qw8rL04DnkiU6iwtlJhvUBoB9+5ygdpky0QU93LP5+JttiIiIKN7cdTw2bNB29Gigbl3g119T06dkYNCDEs4GPTL1In/LFido8cILTtDjyCO1dQc9Fi7UYolVqgBNm+q6Dh2c1+vW1aCHMZy+kiiR3Jker7wC/PYbMHhw+Ps3bKhtuEEKW9PhoIP8v25nhPnxx/D7QOnFXbh00SLN9ChTRgNaa9fq3/VI/Pabs5xL46qJiCh19u51lnft0nb3bm0rVEh+f5KFQQ9KuEzP9HAXM/z4Y2DyZF3u3FlbWwW5qEjH/9esqc9tSrv942KzQOrU0ZYfcokSx9biqFZN/wYdcURk+7dvr6377n4woYIeNuDCWT4y086d3vWbZswA5s3TgrcNGugQqkgD2e7Zvfj/gIiIksEd9LD/1xj0IIoDG/TI1HFi7hkXCgu1MCEAHH20tjbosWaNBna6dtXnnTp5H8deRDVurC0vfogSx53pEY3atTVra+bM8LYPFfSwv/eRTINL6cMOX7Hf38mT9YNj/fqawQdEPnSpoKDk8YmIiBIpWKZHxYrJ70+yMOhBCWcLmWZq0MNePFWv7r3eDm+xQQ97MWPT2Hv2dLZ9/HFnmRc/RInnrukRDRG9oF27VmdhCWXtWt3HXgD7sn8XYv29Ly4Ghg/XmUQoeWwmxqBB2n73nbZ16zqzAkUa9MjVaQOJiCh1/AU9bMtMD6IY2EwPd2pwJrEpy++8A5x+ui5XqeJc3AQKegCaJfLOO8CVVzrr4nXxQ0SBbd0KlCoV2YwtvmxdD5vFEcz06Tp0zf6981W7tn6YiDXD66OPNNvMFmel5LBBiZYtdTiLzczo0sUJetj/BeGaMUP/l0RbCJWIiChS+/Y5y+7hLSJAuXKp6VMyMOhBCWcrA190UWr7ES17N65FC73gePttLUZoa3e89Za2tsCpO+jRtKmO5S9d2llnX+fwFqLE2bZNszxKxfBf7thjtXUPcfNnyxYd2la7duBtRDTLK9Zg56xZznKkhTMpejboUa8ecOihzvrmzZ3vu7vQaTj27AHKltVgmf0/SURElEg200PEe3hLhQq6Llsx6EEJt3x5qnsQG3dtABFgyBANgOTn6/rCQmDaNK3mD3gHPfypXl1rBcR68fPbb8C338Z2DKJstXVr9PU8rGbNtA1VzNQWOw5VLLVJE2DzZu/p4iLl/kCyenX0x6HIrF+vbd263tMSN2vmDH3866/wj7djhwY92rbVoAe/l0RElAw26FGjhi4XFTlBj2wWIBHXPxF5OU7nNcaYi+N0LEpzmVrLw9qyRS80Klcu+Vrr1hp8sPU78vKAgw8OfjwRvfiJJeixcyfQpo3Tv1gv7oiyzdatoQOQoTRvru033wAXB/mPZYudDhgQ/Hi2ns+CBc7sT5FyzxCycmXovzcUH7ZeR506wPHHA+PH6/MWLXSIChD+TD+AE+Ro0UKz/n76Cdi+3TkWERFRItigR82aeiNm1y4GPfy5AIABEGvyiwHAoEeOyPSgh71j7C9NfuZM70KJNWsGHtPv1qQJMH++fpAOlhIfyA8/OMurVjHoQQRoxtUffwCXXuoMb4mFHcawfXvw7Ww9hnbtgm9naz8sXhyfoEc4tUYoPuzwkzp1gJNO0gr3/ftrPY4GDTTb44svdKx0OGOi3bPB2FogixYBHTokpv9ERESAd9AD0KDHrl2a+ZHNohne8iWA42J4fBlzrymjHH98qnsQm2Bp8lWqeM+iEO6FjC2u+Mcf0fVp8mRnmRc+ROqEE4B//xv49VetdxFrMLB2bR3OMHFi8O2+/lovflu0CL5dr17aTpoUfZ/cM37wdz95Nm7U73GVKppds2OH87dfBDjsMF2ePj2849mgR/36QJ8+urxgQXz7TERE5Mtf0GP37uyerhaILuixzhjzbbQPAJyYLcece662vXunth/RCjV85Nxz9Y4fAJx5ZnjHPPlkbadOja5P7qJ3rPpPpFO57t+vy998o208MqBq1dJjB5qZo6hI6xbVrRs6y6tVK21jmcnKnenB3/3kWb9eszxsTRXfYm9nn62tre0Uig1Y1a/v1I5xB7OJiIgSIVDQI9uHt0Qa9JgAYF6M55wH4OMYj0EZxF4IZOJMA8XFmtoe6uLp9df1A+t554V3XJs2H+2dWnewhHd7ibx/D2wmRTyCHscco+3PP/t/fdQobbt3D32sOnU0y8vO9BQNDm9JjbVrvQuY+urWTdtwi5m6h7fYIS0FBdH3j4iIKBy+QY8tW/QGDoMeLsaYgcaYp2I5oTHmSWPMwFiOQZlFRKdszcTaHtu3a7DGVucPpHJlzWRxT00bjJ3lIdIpDgGNyLqn0OTdXiLvQMLChdrGY3zqiSdqa4uV+nrhBW2vvjr0sUR0GutYgx42Y4S/+4lnjA5l2bUreNDDDm167DFnGvNg3MNbatTQ/x0TJ8Y2sw8REVEo7tlbACeTlUEPojjIy8vMoIe9qxrvQqEVK2q9gGhmcLEp0PbuIO/2EnkHAu0sGsEuUsNlazW4j29t3KgXrw0bAsceG97xmjTRIqvujI1wFRdrTY+6dXXYDX/3E+umm7SA9cueeeuC/Ty5Z/c655zQx37zTW3r1NG2qEhbzt5CRESJtHcvULas83/Lzk7GoIeLiFwhIm0S1RnKXnl5wIEDqe5F5GzRwETMjtKkiU5VGOmwnz//1Paqq/SPlp36kCiXLVtWcl08gh42q+Lbb0u+9sEH2p5wQvjHa9pU22iyPWzmWbVqGvhYvz7yY1D4HnlE2+uu07ZeveDbu4cdvvpq4L/t7mK0Njvw0UeddSKZORyUiIjSn51lzBYuZdDDv6cA/CwiBSLyiYjcLCLHikiZRHSOskemZnrYD6ehhrdEo3Fjjba6i5KGw97FPuYYnSpx7ty4d40o42zerK17mtp4BD3KlNHAx4oV3gVIJ0/WmWKA8O7sWzboMXt25H2x2SHVq+tjy5bIL4537XICpxTY7t3Osv0ah/p56tULGDJEly+4AHjjDf/bvfOOtjfe6Ky7/npg8GDn+aef+t/XGOD33zXrJ1MVFmodLH+BykhMnhz4a0xERP7t3Qvk5ztBDnsdwtlbvL0PnX2lGoBTAdwPYAaArSIyVUTuFZETRKRSfLtJma5MGWZ6+GrcWNtIP/j99pumXDdtqkNkDhwA9uyJd++IMsu2bdoedZSzLh5BDwBo2VJbe7FqjJPdcfrpwHHHhX+shg21DVQjJBh30KNGDb143LUrsmOccooGcaKdLjtX+BvOFE6NGPcsZcOGacaHrx9+0NbWi7HGj3eWhw/3f/xbbgFat9YMETtEJtNMnKhfmyZNos9oMQYYMAA4//zoAohERLnKBj2Y6RGEMWawMaYBgOYALgDwPwALAeQD6AngdgBfACgQkR9EZIyIDBSR2vHstIjUEJENImJEJOg9KxEZJiJzRGSnJ0PlMxHpEmKfLp7tCjz7zRGRAB9B/tnnYBF5WUTWiMheEfnLEwTKj+Y9ZptMDXokqqYH4AQ9IqnrYQwwaxbQqJEObbEXUBUqAF9+GfcuEkVl4kRn2thksQHKI4901tl6CbG69FJt7RAEOzV1zZrAhAkahAxXr17a2hlmImFn96hZ07kAj3TGj2nTtP3ww8jPn0vs1LNNmjjrjj469H4XXQQ8+aTz/IILdLjK77876156SX9munb13jcvzylwWlBQMjA2ZQrw8MPOczsdfKZxB9xmzYruGFu3OgE/ZnsQEYWPQY8IGGOWGGNeM8b8yxhzOIDaAAYAeBTAHADFADoAGAHgPQDrRCSe95XGAKgVaiMRGQPgVQCtAUz29O0EANNExO8MMp710wCcDGA+NIjTAsBYz/H87dMMOhXvhQA2Q6f2LQ3gTgBfi0i5SN5cNsrUoIe9oEjE8Bb7YTqSTI/ly7W1Y8tPOcV57eSTOQ6cUq+oCOjXz/uOdzJs26Z3v+3MSED4symF0revtgsWaPaIDRj4q/MRSpUqWo9j82angnq47N+jGjWcv0mRBD3cGWH2Qw75Z4vEXnaZtvn5TpA5mLw8rbd0113e61u31posNvhRubL/D5j16jl1ZNwBDmOAPn1Kbh9oKuV05q5DFe1MRu7/m76/hytXAldeCYwcyf+JRES+GPSIgTGmwBjzsTHmZmPMsQCqAugF4AEA2wAIgEPjcS4R6Q1gOIAXQ2x3PIDroEGIdsaYAcaYkwH0AFAE4BURqe6zT3UAr0ADFoOMMb2MMYMAHAZgMYDrRMRfIvPL0MDPE8aYNsaYswC0BPAhgGMB3Bb1G84SZcpkZk2Pdeu0DVXALho208Nd/C4Ue6fZ3i0eNsz7dVvvgyhVVqzQtrg4uRccW7dqRpadOrRMHCtNiQC3367L9m/CtGneAZZIDB6sX5+ffopsP1u3JNpMD/u9AWKvp5DtbJbf0UcDH3+sj0gyeu65B9i/H7jwQmdd1aoa/ACAG24IvO+MGdpOmODM6uIe+rJ5s9YAAbyHc4Vy7rlAu3apDwTY4D3g/TMZ7TG2b/d+7fjjgWee0e/B++9Hd3wiomzlG/TglLVREJHankyJ+wE8AuBGaP0PANgdaL8Ijl8ewHMAFniOH4z9SDHaGLPIrjTGfO85RlUAF/nsc4ln/QRjzAeufdYDuNnz9HqfPnWCBlI2uLaBMaYQwOUADgC4OteLvWZapsfOncBjjzl35Q46KP7nsJkev/wS/j4TJmhrgx2lS+uHYntX/dBDgS5dOJUlpc7Chc6ye5aKRLNBjx499Hc30oBCKPfco8MRWrTQQGX37tEfq5YnTzHSu9zuoIfN9Ihk6lt3oMN90ZhMl10GnHaaczGfrtz1U/r1i2yGHqtMGZ3udqCfvNJrrw28n7t2SN+++rM9dKg+f+EFff2OO5xtbCAumNWrtQbI/PmBi6Qmi/tnb+XK6I7h/lleudL5fFFQ4B38/+yz6I5PRJStmOkRBRFpKiLDReRFT22NddDhLCMANADwETTb4mg4wY9Y3A2gGZxgQqB+5QOwydXv+dnEruvns/60IPt8CmAvgD4+dTrsPp8YY/a5d/AES6YDqA7AZ/RublmzxhmrnAkGDtRpCr/4Qu/uxas2gFu5clogcf164LvvvF/btg24/37vKSk3bNAPd40aAYcd5qwvVQq4+Wbn+fffOynZRMnm/j1P5u/8tm16J11ELyijzcIIpHRpvQP/119OplW0bMBk0aLg2/mKNdPDfbEZr6DHn396z2rjVlDgBJ8OHNB6Ky+8oBfdP/4Yn/MnijvoEav333eKlwI6HKNKleD7jPEMpp00ybsPNuBdvbrWDwHCq+f08cf